tests/golden/reports/export_ieee123_powers.txt
Element, Terminal, P(kW), Q(kvar),  P_Normal, Q_Normal, P_Emergency, Q_Emergency
"Transformer.REG1A"     ,   1,      3615.2,      1311.5,         0.0,         0.0,         0.0,         0.0
"Transformer.REG1A"     ,   2,     -3615.2,     -1311.5
"Line.L115"             ,   1,      3615.2,      1311.5,      1325.1,       480.7,       180.0,        65.3
"Line.L115"             ,   2,     -3595.9,     -1270.9
"Line.L1"               ,   1,        20.0,        10.0,         0.0,         0.0,         0.0,         0.0
"Line.L1"               ,   2,       -20.0,       -10.0
"Line.L2"               ,   1,       102.9,        51.5,         0.0,         0.0,         0.0,         0.0
"Line.L2"               ,   2,      -102.7,       -51.4
"Line.L3"               ,   1,      3433.1,      1189.3,      1194.2,       413.7,        74.8,        25.9
"Line.L3"               ,   2,     -3419.9,     -1161.7
"Line.L4"               ,   1,        40.0,        20.0,         0.0,         0.0,         0.0,         0.0
"Line.L4"               ,   2,       -40.0,       -20.0
"Line.L5"               ,   1,        62.7,        31.4,         0.0,         0.0,         0.0,         0.0
"Line.L5"               ,   2,       -62.6,       -31.3
"Line.L6"               ,   1,        42.1,        21.1,         0.0,         0.0,         0.0,         0.0
"Line.L6"               ,   2,       -42.1,       -21.0
"Line.L7"               ,   1,      3399.9,      1151.7,      1149.2,       389.3,        23.9,         8.1
"Line.L7"               ,   2,     -3391.2,     -1133.5
"Line.L8"               ,   1,        20.0,        10.0,         0.0,         0.0,         0.0,         0.0
"Line.L8"               ,   2,       -20.0,       -10.0
"Line.L9"               ,   1,       100.9,        50.6,         0.0,         0.0,         0.0,         0.0
"Line.L9"               ,   2,      -100.8,       -50.4
"Line.L10"              ,   1,      3270.3,      1072.9,       926.3,       303.9,         0.0,         0.0
"Line.L10"              ,   2,     -3258.5,     -1048.2
"Line.L11"              ,   1,        60.8,        30.4,         0.0,         0.0,         0.0,         0.0
"Line.L11"              ,   2,       -60.7,       -30.4
"Line.L12"              ,   1,       101.2,        50.7,         0.0,         0.0,         0.0,         0.0
"Line.L12"              ,   2,      -101.1,       -50.6
"Line.L13"              ,   1,      1126.0,       668.1,         0.0,         0.0,         0.0,         0.0
"Line.L13"              ,   2,     -1121.0,      -658.1
"Line.L14"              ,   1,        40.5,        20.3,         0.0,         0.0,         0.0,         0.0
"Line.L14"              ,   2,       -40.5,       -20.3
"Line.L15"              ,   1,        20.1,        10.1,         0.0,         0.0,         0.0,         0.0
"Line.L15"              ,   2,       -20.1,       -10.1
"Line.L16"              ,   1,        40.0,        20.0,         0.0,         0.0,         0.0,         0.0
"Line.L16"              ,   2,       -40.0,       -20.0
"Line.L17"              ,   1,        20.0,        10.0,         0.0,         0.0,         0.0,         0.0
"Line.L17"              ,   2,       -20.0,       -10.0
"Line.L18"              ,   1,        79.8,        39.9,         0.0,         0.0,         0.0,         0.0
"Line.L18"              ,   2,       -79.7,       -39.9
"Line.L19"              ,   1,       281.6,       141.5,         0.0,         0.0,         0.0,         0.0
"Line.L19"              ,   2,      -281.5,      -141.3
"Line.L20"              ,   1,        39.7,        19.8,         0.0,         0.0,         0.0,         0.0
"Line.L20"              ,   2,       -39.6,       -19.8
"Line.L21"              ,   1,        42.1,        21.1,         0.0,         0.0,         0.0,         0.0
"Line.L21"              ,   2,       -42.1,       -21.0
"Line.L22"              ,   1,       239.4,       120.2,         0.0,         0.0,         0.0,         0.0
"Line.L22"              ,   2,      -239.3,      -119.9
"Line.L23"              ,   1,        40.0,        20.0,         0.0,         0.0,         0.0,         0.0
"Line.L23"              ,   2,       -40.0,       -20.0
"Line.L24"              ,   1,       199.3,        99.9,         0.0,         0.0,         0.0,         0.0
"Line.L24"              ,   2,      -199.2,       -99.7
"Line.L25"              ,   1,        80.2,        40.2,         0.0,         0.0,         0.0,         0.0
"Line.L25"              ,   2,       -80.2,       -40.1
"Line.L26"              ,   1,       119.0,        59.6,         0.0,         0.0,         0.0,         0.0
"Line.L26"              ,   2,      -119.0,       -59.5
"Line.L27"              ,   1,        40.1,        20.1,         0.0,         0.0,         0.0,         0.0
"Line.L27"              ,   2,       -40.1,       -20.1
"Line.L28"              ,   1,        40.0,        20.0,         0.0,         0.0,         0.0,         0.0
"Line.L28"              ,   2,       -40.0,       -20.0
"Line.L29"              ,   1,        40.1,        20.1,         0.0,         0.0,         0.0,         0.0
"Line.L29"              ,   2,       -40.1,       -20.0
"Line.L30"              ,   1,        79.3,        39.7,         0.0,         0.0,         0.0,         0.0
"Line.L30"              ,   2,       -79.3,       -39.7
"Line.L31"              ,   1,        40.0,        20.0,         0.0,         0.0,         0.0,         0.0
"Line.L31"              ,   2,       -40.0,       -20.0
"Line.L32"              ,   1,         0.0,        -0.0,         0.0,         0.0,         0.0,         0.0
"Line.L32"              ,   2,         0.0,        -0.0
"Line.L33"              ,   1,        20.0,        10.0,         0.0,         0.0,         0.0,         0.0
"Line.L33"              ,   2,       -20.0,       -10.0
"Line.L34"              ,   1,        60.1,        30.1,         0.0,         0.0,         0.0,         0.0
"Line.L34"              ,   2,       -60.0,       -30.0
"Line.L35"              ,   1,        79.7,        39.9,         0.0,         0.0,         0.0,         0.0
"Line.L35"              ,   2,       -79.6,       -39.8
"Line.L36"              ,   1,       638.9,       414.7,         0.0,         0.0,         0.0,         0.0
"Line.L36"              ,   2,      -638.5,      -413.7
"Line.L37"              ,   1,        39.1,        19.6,         0.0,         0.0,         0.0,         0.0
"Line.L37"              ,   2,       -39.1,       -19.6
"Line.L38"              ,   1,        40.5,        20.3,         0.0,         0.0,         0.0,         0.0
"Line.L38"              ,   2,       -40.5,       -20.2
"Line.L39"              ,   1,        20.0,        10.0,         0.0,         0.0,         0.0,         0.0
"Line.L39"              ,   2,       -20.0,       -10.0
"Line.L40"              ,   1,        20.0,        10.0,         0.0,         0.0,         0.0,         0.0
"Line.L40"              ,   2,       -20.0,       -10.0
"Line.L41"              ,   1,       618.4,       403.7,         0.0,         0.0,         0.0,         0.0
"Line.L41"              ,   2,      -618.0,      -402.8
"Line.L42"              ,   1,        41.7,        20.9,         0.0,         0.0,         0.0,         0.0
"Line.L42"              ,   2,       -41.7,       -20.8
"Line.L43"              ,   1,       556.3,       371.9,         0.0,         0.0,         0.0,         0.0
"Line.L43"              ,   2,      -556.0,      -371.3
"Line.L44"              ,   1,        39.7,        19.9,         0.0,         0.0,         0.0,         0.0
"Line.L44"              ,   2,       -39.7,       -19.9
"Line.L45"              ,   1,       516.2,       351.4,         0.0,         0.0,         0.0,         0.0
"Line.L45"              ,   2,      -515.9,      -350.7
"Line.L46"              ,   1,        20.0,        10.0,         0.0,         0.0,         0.0,         0.0
"Line.L46"              ,   2,       -20.0,       -10.0
"Line.L47"              ,   1,       210.7,       150.5,         0.0,         0.0,         0.0,         0.0
"Line.L47"              ,   2,      -210.6,      -150.5
"Line.L48"              ,   1,       200.1,       125.1,         0.0,         0.0,         0.0,         0.0
"Line.L48"              ,   2,      -200.0,      -125.0
"Line.L49"              ,   1,        60.0,        30.0,         0.0,         0.0,         0.0,         0.0
"Line.L49"              ,   2,       -60.0,       -30.0
"Line.L50"              ,   1,        20.0,        10.0,         0.0,         0.0,         0.0,         0.0
"Line.L50"              ,   2,       -20.0,       -10.0
"Line.L51"              ,   1,        -0.0,        -0.0,         0.0,         0.0,         0.0,         0.0
"Line.L51"              ,   2,         0.0,        -0.0
"Line.L52"              ,   1,      1985.6,       297.6,         0.0,         0.0,         0.0,         0.0
"Line.L52"              ,   2,     -1982.9,      -291.9
"Line.L53"              ,   1,      1942.9,       271.9,         0.0,         0.0,         0.0,         0.0
"Line.L53"              ,   2,     -1941.3,      -268.6
"Line.L54"              ,   1,        39.7,        19.8,         0.0,         0.0,         0.0,         0.0
"Line.L54"              ,   2,       -39.7,       -19.8
"Line.L55"              ,   1,      1901.7,       248.8,         0.0,         0.0,         0.0,         0.0
"Line.L55"              ,   2,     -1897.4,      -240.0
"Line.L56"              ,   1,        20.0,        10.0,         0.0,         0.0,         0.0,         0.0
"Line.L56"              ,   2,       -20.0,       -10.0
"Line.L57"              ,   1,        40.5,        20.3,         0.0,         0.0,         0.0,         0.0
"Line.L57"              ,   2,       -40.5,       -20.3
"Line.L58"              ,   1,      1856.9,       219.7,         0.0,         0.0,         0.0,         0.0
"Line.L58"              ,   2,     -1848.0,      -201.5
"Line.L59"              ,   1,        20.0,        10.0,         0.0,         0.0,         0.0,         0.0
"Line.L59"              ,   2,       -20.0,       -10.0
"Line.L60"              ,   1,         0.0,        -0.0,         0.0,         0.0,         0.0,         0.0
"Line.L60"              ,   2,        -0.0,        -0.0
"Line.L61"              ,   1,       371.4,       210.0,         0.0,         0.0,         0.0,         0.0
"Line.L61"              ,   2,      -370.8,      -209.7
"Line.L62"              ,   1,       331.0,       189.8,         0.0,         0.0,         0.0,         0.0
"Line.L62"              ,   2,      -330.7,      -189.7
"Line.L63"              ,   1,       290.7,       169.7,         0.0,         0.0,         0.0,         0.0
"Line.L63"              ,   2,      -290.2,      -169.5
"Line.L64"              ,   1,       213.9,       134.0,         0.0,         0.0,         0.0,         0.0
"Line.L64"              ,   2,      -213.5,      -133.8
"Line.L65"              ,   1,        75.1,        35.0,         0.0,         0.0,         0.0,         0.0
"Line.L65"              ,   2,       -75.0,       -35.0
"Line.L66"              ,   1,       120.4,        60.4,         0.0,         0.0,         0.0,         0.0
"Line.L66"              ,   2,      -120.2,       -60.2
"Line.L67"              ,   1,       886.4,      -308.8,         0.0,         0.0,         0.0,         0.0
"Line.L67"              ,   2,      -885.6,       310.4
"Line.L68"              ,   1,       447.4,       225.2,         0.0,         0.0,         0.0,         0.0
"Line.L68"              ,   2,      -447.2,      -224.8
"Line.L69"              ,   1,       100.2,        50.2,         0.0,         0.0,         0.0,         0.0
"Line.L69"              ,   2,      -100.1,       -50.1
"Line.L70"              ,   1,        60.1,        30.1,         0.0,         0.0,         0.0,         0.0
"Line.L70"              ,   2,       -60.0,       -30.0
"Line.L71"              ,   1,        40.0,        20.0,         0.0,         0.0,         0.0,         0.0
"Line.L71"              ,   2,       -40.0,       -20.0
"Line.L72"              ,   1,       122.9,        61.6,         0.0,         0.0,         0.0,         0.0
"Line.L72"              ,   2,      -122.6,       -61.4
"Line.L73"              ,   1,       762.8,      -372.0,         0.0,         0.0,         0.0,         0.0
"Line.L73"              ,   2,      -762.3,       373.0
"Line.L74"              ,   1,        82.6,        41.4,         0.0,         0.0,         0.0,         0.0
"Line.L74"              ,   2,       -82.5,       -41.3
"Line.L75"              ,   1,        40.0,        20.0,         0.0,         0.0,         0.0,         0.0
"Line.L75"              ,   2,       -40.0,       -20.0
"Line.L76"              ,   1,       245.6,      -529.8,         0.0,         0.0,         0.0,         0.0
"Line.L76"              ,   2,      -245.2,       530.7
"Line.L77"              ,   1,       262.2,       -30.1,         0.0,         0.0,         0.0,         0.0
"Line.L77"              ,   2,      -261.9,        30.6
"Line.L78"              ,   1,       205.2,      -550.7,         0.0,         0.0,         0.0,         0.0
"Line.L78"              ,   2,      -205.1,       550.9
"Line.L79"              ,   1,        43.5,        21.8,         0.0,         0.0,         0.0,         0.0
"Line.L79"              ,   2,       -43.5,       -21.8
"Line.L80"              ,   1,       161.5,      -572.7,         0.0,         0.0,         0.0,         0.0
"Line.L80"              ,   2,      -161.0,       573.8
"Line.L81"              ,   1,       121.0,      -593.8,         0.0,         0.0,         0.0,         0.0
"Line.L81"              ,   2,      -120.8,       594.2
"Line.L82"              ,   1,        60.6,      -624.4,         0.0,         0.0,         0.0,         0.0
"Line.L82"              ,   2,       -60.3,       625.0
"Line.L83"              ,   1,        60.2,        30.2,         0.0,         0.0,         0.0,         0.0
"Line.L83"              ,   2,       -60.0,       -30.0
"Line.L84"              ,   1,        20.3,      -645.0,         0.0,         0.0,         0.0,         0.0
"Line.L84"              ,   2,       -20.0,       645.7
"Line.L85"              ,   1,        40.0,        20.0,         0.0,         0.0,         0.0,         0.0
"Line.L85"              ,   2,       -40.0,       -20.0
"Line.L86"              ,   1,       241.9,       -40.6,         0.0,         0.0,         0.0,         0.0
"Line.L86"              ,   2,      -241.8,        40.9
"Line.L87"              ,   1,        40.0,       -34.1,         0.0,         0.0,         0.0,         0.0
"Line.L87"              ,   2,       -40.0,        34.1
"Line.L88"              ,   1,       161.8,       -26.8,         0.0,         0.0,         0.0,         0.0
"Line.L88"              ,   2,      -161.8,        26.9
"Line.L89"              ,   1,        41.7,       -33.3,         0.0,         0.0,         0.0,         0.0
"Line.L89"              ,   2,       -41.7,        33.3
"Line.L90"              ,   1,       120.1,         6.4,         0.0,         0.0,         0.0,         0.0
"Line.L90"              ,   2,      -120.1,        -6.3
"Line.L91"              ,   1,        40.0,       -33.7,         0.0,         0.0,         0.0,         0.0
"Line.L91"              ,   2,       -40.0,        33.8
"Line.L92"              ,   1,        80.0,        40.1,         0.0,         0.0,         0.0,         0.0
"Line.L92"              ,   2,       -80.0,       -40.0
"Line.L93"              ,   1,        40.0,        20.0,         0.0,         0.0,         0.0,         0.0
"Line.L93"              ,   2,       -40.0,       -20.0
"Line.L94"              ,   1,        40.0,        20.0,         0.0,         0.0,         0.0,         0.0
"Line.L94"              ,   2,       -40.0,       -20.0
"Line.L95"              ,   1,        20.0,        10.0,         0.0,         0.0,         0.0,         0.0
"Line.L95"              ,   2,       -20.0,       -10.0
"Line.L96"              ,   1,       122.8,        61.4,         0.0,         0.0,         0.0,         0.0
"Line.L96"              ,   2,      -122.7,       -61.4
"Line.L97"              ,   1,        82.7,        41.4,         0.0,         0.0,         0.0,         0.0
"Line.L97"              ,   2,       -82.7,       -41.3
"Line.L98"              ,   1,        42.7,        21.3,         0.0,         0.0,         0.0,         0.0
"Line.L98"              ,   2,       -42.7,       -21.3
"Line.L99"              ,   1,         0.0,        -0.0,         0.0,         0.0,         0.0,         0.0
"Line.L99"              ,   2,        -0.0,         0.0
"Line.L118"             ,   1,       324.5,       163.4,         0.0,         0.0,         0.0,         0.0
"Line.L118"             ,   2,      -324.3,      -163.1
"Line.L100"             ,   1,       100.3,        50.3,         0.0,         0.0,         0.0,         0.0
"Line.L100"             ,   2,      -100.2,       -50.2
"Line.L101"             ,   1,       224.1,       112.9,         0.0,         0.0,         0.0,         0.0
"Line.L101"             ,   2,      -224.0,      -112.6
"Line.L102"             ,   1,        80.2,        40.2,         0.0,         0.0,         0.0,         0.0
"Line.L102"             ,   2,       -80.1,       -40.1
"Line.L103"             ,   1,        40.1,        20.1,         0.0,         0.0,         0.0,         0.0
"Line.L103"             ,   2,       -40.0,       -20.0
"Line.L104"             ,   1,        80.1,        40.1,         0.0,         0.0,         0.0,         0.0
"Line.L104"             ,   2,       -80.0,       -40.0
"Line.L105"             ,   1,       143.8,        72.5,         0.0,         0.0,         0.0,         0.0
"Line.L105"             ,   2,      -143.7,       -72.2
"Line.L106"             ,   1,        40.0,        20.0,         0.0,         0.0,         0.0,         0.0
"Line.L106"             ,   2,       -40.0,       -20.0
"Line.L107"             ,   1,       143.7,        72.3,         0.0,         0.0,         0.0,         0.0
"Line.L107"             ,   2,      -143.2,       -71.8
"Line.L108"             ,   1,         0.0,        -0.0,         0.0,         0.0,         0.0,         0.0
"Line.L108"             ,   2,        -0.0,        -0.0
"Line.L109"             ,   1,       103.2,        51.8,         0.0,         0.0,         0.0,         0.0
"Line.L109"             ,   2,      -103.1,       -51.6
"Line.L110"             ,   1,        20.0,        10.0,         0.0,         0.0,         0.0,         0.0
"Line.L110"             ,   2,       -20.0,       -10.0
"Line.L111"             ,   1,        83.1,        41.6,         0.0,         0.0,         0.0,         0.0
"Line.L111"             ,   2,       -83.0,       -41.6
"Line.L112"             ,   1,        62.4,        31.3,         0.0,         0.0,         0.0,         0.0
"Line.L112"             ,   2,       -62.3,       -31.2
"Line.L113"             ,   1,        20.0,        10.0,         0.0,         0.0,         0.0,         0.0
"Line.L113"             ,   2,       -20.0,       -10.0
"Line.L114"             ,   1,       759.6,       476.7,         0.0,         0.0,         0.0,         0.0
"Line.L114"             ,   2,      -758.6,      -474.6
"Line.L116"             ,   1,      2031.3,       329.5,         0.0,         0.0,         0.0,         0.0
"Line.L116"             ,   2,     -2025.6,      -317.6
"Line.L117"             ,   1,      1456.6,       -18.4,         0.0,         0.0,         0.0,         0.0
"Line.L117"             ,   2,     -1454.2,        23.2
"Line.SW1"              ,   1,      3615.2,      1311.5,      1325.1,       480.7,       180.0,        65.3
"Line.SW1"              ,   2,     -3615.2,     -1311.5
"Line.SW2"              ,   1,      2031.3,       329.5,         0.0,         0.0,         0.0,         0.0
"Line.SW2"              ,   2,     -2031.3,      -329.5
"Line.SW3"              ,   1,       759.6,       476.7,         0.0,         0.0,         0.0,         0.0
"Line.SW3"              ,   2,      -759.6,      -476.7
"Line.SW4"              ,   1,      1456.6,       -18.4,         0.0,         0.0,         0.0,         0.0
"Line.SW4"              ,   2,     -1456.6,        18.4
"Line.SW5"              ,   1,       324.5,       163.4,         0.0,         0.0,         0.0,         0.0
"Line.SW5"              ,   2,      -324.5,      -163.4
"Line.SW6"              ,   1,         0.0,         0.0,         0.0,         0.0,         0.0,         0.0
"Line.SW6"              ,   2,        -0.0,        -0.0
"Line.SW7"              ,   1,         0.0,         0.0,         0.0,         0.0,         0.0,         0.0
"Line.SW7"              ,   2,         0.0,         0.0
"Line.SW8"              ,   1,         0.0,         0.0,         0.0,         0.0,         0.0,         0.0
"Line.SW8"              ,   2,         0.0,         0.0
"Transformer.XFM1"      ,   1,         0.0,         0.0,         0.0,         0.0,         0.0,         0.0
"Transformer.XFM1"      ,   2,         0.0,         0.0
"Capacitor.C83"         ,   1,         0.0,      -655.7,         0.0,         0.0,         0.0,         0.0
"Capacitor.C83"         ,   2,         0.0,         0.0
"Capacitor.C88A"        ,   1,         0.0,       -54.1,         0.0,         0.0,         0.0,         0.0
"Capacitor.C88A"        ,   2,         0.0,         0.0
"Capacitor.C90B"        ,   1,         0.0,       -54.1,         0.0,         0.0,         0.0,         0.0
"Capacitor.C90B"        ,   2,         0.0,         0.0
"Capacitor.C92C"        ,   1,         0.0,       -53.8,         0.0,         0.0,         0.0,         0.0
"Capacitor.C92C"        ,   2,         0.0,         0.0
"Transformer.REG2A"     ,   1,        60.8,        30.4,         0.0,         0.0,         0.0,         0.0
"Transformer.REG2A"     ,   2,       -60.8,       -30.4
"Transformer.REG3A"     ,   1,        40.1,        20.1,         0.0,         0.0,         0.0,         0.0
"Transformer.REG3A"     ,   2,       -40.1,       -20.1
"Transformer.REG4A"     ,   1,       570.9,        22.2,         0.0,         0.0,         0.0,         0.0
"Transformer.REG4A"     ,   2,      -570.9,       -22.1
"Transformer.REG3C"     ,   1,        40.0,        20.0,         0.0,         0.0,         0.0,         0.0
"Transformer.REG3C"     ,   2,       -40.0,       -20.0
"Transformer.REG4B"     ,   1,       425.1,       -20.2,         0.0,         0.0,         0.0,         0.0
"Transformer.REG4B"     ,   2,      -425.1,        20.2
"Transformer.REG4C"     ,   1,       460.5,       -20.4,         0.0,         0.0,         0.0,         0.0
"Transformer.REG4C"     ,   2,      -460.5,        20.4
"Load.S1A"              ,   1,        40.0,        20.0
"Load.S2B"              ,   1,        20.0,        10.0
"Load.S4C"              ,   1,        40.0,        20.0
"Load.S5C"              ,   1,        20.5,        10.3
"Load.S6C"              ,   1,        42.1,        21.0
"Load.S7A"              ,   1,        20.0,        10.0
"Load.S9A"              ,   1,        40.0,        20.0
"Load.S10A"             ,   1,        20.1,        10.1
"Load.S11A"             ,   1,        40.5,        20.3
"Load.S12B"             ,   1,        20.0,        10.0
"Load.S16C"             ,   1,        40.0,        20.0
"Load.S17C"             ,   1,        20.0,        10.0
"Load.S19A"             ,   1,        40.0,        20.0
"Load.S20A"             ,   1,        39.6,        19.8
"Load.S22B"             ,   1,        42.1,        21.0
"Load.S24C"             ,   1,        40.0,        20.0
"Load.S28A"             ,   1,        39.7,        19.8
"Load.S29A"             ,   1,        39.3,        19.6
"Load.S30C"             ,   1,        40.0,        20.0
"Load.S31C"             ,   1,        20.0,        10.0
"Load.S32C"             ,   1,        20.0,        10.0
"Load.S33A"             ,   1,        40.1,        20.0
"Load.S34C"             ,   1,        41.1,        20.5
"Load.S35A"             ,   1,        40.0,        20.0
"Load.S37A"             ,   1,        39.1,        19.6
"Load.S38B"             ,   1,        20.5,        10.2
"Load.S39B"             ,   1,        20.0,        10.0
"Load.S41C"             ,   1,        20.0,        10.0
"Load.S42A"             ,   1,        20.0,        10.0
"Load.S43B"             ,   1,        41.7,        20.8
"Load.S45A"             ,   1,        19.7,         9.9
"Load.S46A"             ,   1,        20.0,        10.0
"Load.S47"              ,   1,       105.2,        75.1
"Load.S48"              ,   1,       210.6,       150.5
"Load.S49A"             ,   1,        35.0,        25.0
"Load.S49B"             ,   1,        70.0,        50.0
"Load.S49C"             ,   1,        35.0,        20.0
"Load.S50C"             ,   1,        40.0,        20.0
"Load.S51A"             ,   1,        20.0,        10.0
"Load.S52A"             ,   1,        40.0,        20.0
"Load.S53A"             ,   1,        40.0,        20.0
"Load.S55A"             ,   1,        19.7,         9.8
"Load.S56B"             ,   1,        20.0,        10.0
"Load.S58B"             ,   1,        20.5,        10.3
"Load.S59B"             ,   1,        20.0,        10.0
"Load.S60A"             ,   1,        20.0,        10.0
"Load.S62C"             ,   1,        39.8,        19.9
"Load.S63A"             ,   1,        40.0,        20.0
"Load.S64B"             ,   1,        76.3,        35.6
"Load.S65A"             ,   1,        34.3,        24.5
"Load.S65B"             ,   1,        35.4,        25.3
"Load.S65C"             ,   1,        68.7,        49.1
"Load.S66C"             ,   1,        75.0,        35.0
"Load.S68A"             ,   1,        20.0,        10.0
"Load.S69A"             ,   1,        40.0,        20.0
"Load.S70A"             ,   1,        20.0,        10.0
"Load.S71A"             ,   1,        40.0,        20.0
"Load.S73C"             ,   1,        40.0,        20.0
"Load.S74C"             ,   1,        42.5,        21.2
"Load.S75C"             ,   1,        40.0,        20.0
"Load.S76A"             ,   1,       108.6,        82.7
"Load.S76B"             ,   1,        72.8,        52.0
"Load.S76C"             ,   1,        73.2,        52.3
"Load.S77B"             ,   1,        40.0,        20.0
"Load.S79A"             ,   1,        43.5,        21.8
"Load.S80B"             ,   1,        40.0,        20.0
"Load.S82A"             ,   1,        40.0,        20.0
"Load.S83C"             ,   1,        20.0,        10.0
"Load.S84C"             ,   1,        20.0,        10.0
"Load.S85C"             ,   1,        40.0,        20.0
"Load.S86B"             ,   1,        20.0,        10.0
"Load.S87B"             ,   1,        40.0,        20.0
"Load.S88A"             ,   1,        40.0,        20.0
"Load.S90B"             ,   1,        41.7,        20.8
"Load.S92C"             ,   1,        40.0,        20.0
"Load.S94A"             ,   1,        40.0,        20.0
"Load.S95B"             ,   1,        20.0,        10.0
"Load.S96B"             ,   1,        20.0,        10.0
"Load.S98A"             ,   1,        40.0,        20.0
"Load.S99B"             ,   1,        40.0,        20.0
"Load.S100C"            ,   1,        42.7,        21.4
"Load.S102C"            ,   1,        20.0,        10.0
"Load.S103C"            ,   1,        40.0,        20.0
"Load.S104C"            ,   1,        40.0,        20.0
"Load.S106B"            ,   1,        40.0,        20.0
"Load.S107B"            ,   1,        40.0,        20.0
"Load.S109A"            ,   1,        40.0,        20.0
"Load.S111A"            ,   1,        20.0,        10.0
"Load.S112A"            ,   1,        20.6,        10.3
"Load.S113A"            ,   1,        42.3,        21.2
"Load.S114A"            ,   1,        20.0,        10.0
